resultados/Relatorios/ieee24-apavila/ieee24-apavila-report.txt
October 22, 2023


relatório do sistema ieee24-apavila

solução do fluxo de potência via método newton-raphson

opções de controle ativadas: FREQ 

opções de relatório ativadas: RBAR 



vv relatório de convergência vv

       |  FREQ  |  ERROR  | BARRA |  ERROR  | BARRA |  ERROR  | BARRA |
| ITER |    Hz  |     MW  |   NUM |   MVAr  |   NUM |   CTRL  |   NUM |
-----------------------------------------------------------------------
|  1   | 60.000 | 1213.451 |  13   | 276.131 |  13   |  0.000  |   1   |
|  2   | 60.171 | 83.917  |  13   | 167.851 |  13   |  0.000  |   4   |
|  3   | 60.104 |  2.152  |  13   |  4.728  |  12   |  0.000  |  11   |
-----------------------------------------------------------------------

 * * * * SISTEMA CONVERGENTE * * * * 

       |  FREQ  |  ERROR  | BARRA |  ERROR  | BARRA |  ERROR  | BARRA |
| ITER |    Hz  |     MW  |   NUM |   MVAr  |   NUM |   CTRL  |   NUM |
-----------------------------------------------------------------------
|  3   | 60.102 |  0.002  |  13   |  0.006  |  12   |  0.000  |   3   |
-----------------------------------------------------------------------



vv relatório de barras vv área 1 vv

|          BARRA           |         TENSAO       |        GERACAO      |         CARGA       |   SHUNT  |
| NUM |     NOME     |  T  |    MOD    |    ANG   |    MW    |   MVAr   |    MW    |   MVAr   |    MVAr  |
----------------------------------------------------------------------------------------------------------
|  1  |  BARRA---1   |  1  |   1.035   |  -22.33  | 161.864  |  28.178  | 108.000  |  22.000  |  0.000   |
----------------------------------------------------------------------------------------------------------
|  2  |  BARRA---2   |  1  |   1.035   |  -22.42  | 161.864  |  19.462  |  97.000  |  20.000  |  0.000   |
----------------------------------------------------------------------------------------------------------
|  3  |  BARRA---3   |  0  |   0.984   |  -20.25  |  0.000   |  0.000   | 180.000  |  37.000  |  0.000   |
----------------------------------------------------------------------------------------------------------
|  4  |  BARRA---4   |  0  |   0.997   |  -24.32  |  0.000   |  -0.000  |  74.000  |  15.000  |  0.000   |
----------------------------------------------------------------------------------------------------------
|  5  |  BARRA---5   |  0  |   1.017   |  -24.64  |  0.000   |  -0.000  |  71.000  |  14.000  |  0.000   |
----------------------------------------------------------------------------------------------------------
|  6  |  BARRA---6   |  0  |   1.010   |  -26.89  |  0.000   |  0.000   | 136.000  |  28.000  | -101.990 |
----------------------------------------------------------------------------------------------------------
|  7  |  BARRA---7   |  1  |   1.025   |  -22.54  | 229.864  |  55.309  | 125.000  |  25.000  |  0.000   |
----------------------------------------------------------------------------------------------------------
|  8  |  BARRA---8   |  0  |   0.992   |  -25.89  |  0.000   |  -0.000  | 171.000  |  35.000  |  0.000   |
----------------------------------------------------------------------------------------------------------
|  9  |  BARRA---9   |  0  |   1.000   |  -21.72  |  0.000   |  0.000   | 175.000  |  36.000  |  0.000   |
----------------------------------------------------------------------------------------------------------
| 10  |  BARRA--10   |  0  |   1.025   |  -23.77  |  -0.000  |  0.000   | 195.000  |  40.000  |  0.000   |
----------------------------------------------------------------------------------------------------------

|          BARRA           |         TENSAO       |        GERACAO      |         CARGA       |   SHUNT  |
| NUM |     NOME     |  T  |    MOD    |    ANG   |    MW    |   MVAr   |    MW    |   MVAr   |    MVAr  |
----------------------------------------------------------------------------------------------------------
| 11  |  BARRA--11   |  0  |   0.990   |  -16.09  |  0.000   |  0.000   |  0.000   |  0.000   |  0.000   |
----------------------------------------------------------------------------------------------------------
| 12  |  BARRA--12   |  0  |   1.002   |  -15.29  |  0.000   |  0.000   |  0.000   |  0.000   |  0.000   |
----------------------------------------------------------------------------------------------------------



vv relatório de barras vv área 2 vv

|          BARRA           |         TENSAO       |        GERACAO      |         CARGA       |   SHUNT  |
| NUM |     NOME     |  T  |    MOD    |    ANG   |    MW    |   MVAr   |    MW    |   MVAr   |    MVAr  |
----------------------------------------------------------------------------------------------------------
| 13  |  BARRA--13   |  2  |   1.020   |  -13.00  | 275.164  | 122.607  | 265.000  |  54.000  |  0.000   |
----------------------------------------------------------------------------------------------------------
| 14  |  BARRA--14   |  1  |   0.980   |  -12.19  |  -0.000  | -31.444  | 194.000  |  39.000  |  0.000   |
----------------------------------------------------------------------------------------------------------
| 15  |  BARRA--15   |  1  |   1.014   |  -3.55   | 204.864  | -12.740  | 317.000  |  64.000  |  0.000   |
----------------------------------------------------------------------------------------------------------
| 16  |  BARRA--16   |  1  |   1.017   |  -4.48   | 144.864  |  39.807  | 100.000  |  20.000  |  0.000   |
----------------------------------------------------------------------------------------------------------
| 17  |  BARRA--17   |  0  |   1.039   |  -0.25   |  0.000   |  0.000   |  0.000   |  0.000   |  0.000   |
----------------------------------------------------------------------------------------------------------
| 18  |  BARRA--18   |  1  |   1.050   |  +1.02   | 389.864  | 138.315  | 333.000  |  68.000  |  0.000   |
----------------------------------------------------------------------------------------------------------
| 19  |  BARRA--19   |  0  |   1.023   |  -5.70   |  0.000   |  0.000   | 181.000  |  37.000  |  0.000   |
----------------------------------------------------------------------------------------------------------
| 20  |  BARRA--20   |  0  |   1.038   |  -4.83   |  0.000   |  0.000   | 128.000  |  26.000  |  0.000   |
----------------------------------------------------------------------------------------------------------

|          BARRA           |         TENSAO       |        GERACAO      |         CARGA       |   SHUNT  |
| NUM |     NOME     |  T  |    MOD    |    ANG   |    MW    |   MVAr   |    MW    |   MVAr   |    MVAr  |
----------------------------------------------------------------------------------------------------------
| 21  |  BARRA--21   |  1  |   1.050   |  +1.83   | 389.864  | 106.451  |  0.000   |  0.000   |  0.000   |
----------------------------------------------------------------------------------------------------------
| 22  |  BARRA--22   |  1  |   1.050   |  +7.30   | 289.864  | -29.611  |  0.000   |  0.000   |  0.000   |
----------------------------------------------------------------------------------------------------------
| 23  |  BARRA--23   |  1  |   1.050   |  -3.64   | 649.864  | 132.173  |  0.000   |  0.000   |  0.000   |
----------------------------------------------------------------------------------------------------------
| 24  |  BARRA--24   |  0  |   0.982   |  -9.70   |  -0.000  |  0.000   |  0.000   |  0.000   |  0.000   |
----------------------------------------------------------------------------------------------------------



fim do relatório do sistema ieee24-apavila