resultados/Relatorios/ieee24/ieee24-report.txt
November 04, 2022


relatório do sistema ieee24

solução do fluxo de potência via método do fluxo de potência continuado

opções de controle ativadas: Nenhum controle ativo!

opções de relatório ativadas: RBARRA 



vv relatório de convergência vv

       |  FREQ  |  ERROR  | BARRA |  ERROR  | BARRA |  ERROR  | BARRA |
| ITER |    Hz  |     MW  |   NUM |   Mvar  |   NUM |   CTRL  |   NUM |
-----------------------------------------------------------------------
|  1   | 60.000 | 101.436 |  21   | 126.132 |  10   |  0.000  |   1   |
|  2   | 60.000 |  2.008  |  10   |  3.871  |  10   |  0.000  |   1   |
|  3   | 60.000 |  0.005  |  10   |  0.007  |  10   |  0.000  |   1   |
|  4   | 60.000 |  0.000  |  10   |  0.000  |  10   |  0.000  |   1   |
-----------------------------------------------------------------------

 * * * * SISTEMA CONVERGENTE * * * * 

       |  FREQ  |  ERROR  | BARRA |  ERROR  | BARRA |  ERROR  | BARRA |
| ITER |    Hz  |     MW  |   NUM |   Mvar  |   NUM |   CTRL  |   NUM |
-----------------------------------------------------------------------
|  4   | 60.000 |  0.000  |  10   |  0.000  |  10   |  0.000  |   1   |
-----------------------------------------------------------------------



vv relatório de barras vv área 1 vv

|          BARRA          |         TENSAO       |        GERACAO      |         CARGA       |   SHUNT  |
| NUM |     NOME    |  T  |    MOD    |    ANG   |    MW    |   Mvar   |    MW    |   Mvar   |    Mvar  |
---------------------------------------------------------------------------------------------------------
|  1  |  BARRA---1  |  1  |   1.035   |  -20.30  | 172.000  |  26.188  | 183.306  |  37.340  |  0.000   |
---------------------------------------------------------------------------------------------------------
|  2  |  BARRA---2  |  1  |   1.035   |  -20.40  | 172.000  |  17.623  | 164.636  |  33.946  |  0.000   |
---------------------------------------------------------------------------------------------------------
|  3  |  BARRA---3  |  0  |   0.984   |  -18.50  |  0.000   |  0.000   | 305.510  |  62.799  |  0.000   |
---------------------------------------------------------------------------------------------------------
|  4  |  BARRA---4  |  0  |   0.997   |  -22.71  |  0.000   |  -0.000  | 125.599  |  25.459  |  0.000   |
---------------------------------------------------------------------------------------------------------
|  5  |  BARRA---5  |  0  |   1.017   |  -22.97  |  0.000   |  -0.000  | 120.507  |  23.762  |  0.000   |
---------------------------------------------------------------------------------------------------------
|  6  |  BARRA---6  |  0  |   1.010   |  -25.43  |  -0.000  |  0.000   | 230.830  |  47.524  | -57.778  |
---------------------------------------------------------------------------------------------------------
|  7  |  BARRA---7  |  1  |   1.025   |  -20.39  | 240.000  |  53.492  | 212.160  |  42.432  |  0.000   |
---------------------------------------------------------------------------------------------------------
|  8  |  BARRA---8  |  0  |   0.992   |  -24.11  |  -0.000  |  0.000   | 290.235  |  59.405  |  0.000   |
---------------------------------------------------------------------------------------------------------
|  9  |  BARRA---9  |  0  |   1.000   |  -20.44  |  -0.000  |  -0.000  | 297.024  |  61.102  |  0.000   |
---------------------------------------------------------------------------------------------------------
| 10  |  BARRA--10  |  0  |   1.025   |  -22.49  |  0.000   |  -0.000  | 330.969  |  67.891  |  0.000   |
---------------------------------------------------------------------------------------------------------

|          BARRA          |         TENSAO       |        GERACAO      |         CARGA       |   SHUNT  |
| NUM |     NOME    |  T  |    MOD    |    ANG   |    MW    |   Mvar   |    MW    |   Mvar   |    Mvar  |
---------------------------------------------------------------------------------------------------------
| 11  |  BARRA--11  |  0  |   0.990   |  -15.15  |  -0.000  |  0.000   |  0.000   |  0.000   |  0.000   |
---------------------------------------------------------------------------------------------------------
| 12  |  BARRA--12  |  0  |   1.003   |  -14.52  |  0.000   |  0.000   |  0.000   |  0.000   |  0.000   |
---------------------------------------------------------------------------------------------------------



vv relatório de barras vv área 2 vv

|          BARRA          |         TENSAO       |        GERACAO      |         CARGA       |   SHUNT  |
| NUM |     NOME    |  T  |    MOD    |    ANG   |    MW    |   Mvar   |    MW    |   Mvar   |    Mvar  |
---------------------------------------------------------------------------------------------------------
| 13  |  BARRA--13  |  2  |   1.020   |  -13.00  | 187.317  | 133.522  | 449.779  |  91.653  |  0.000   |
---------------------------------------------------------------------------------------------------------
| 14  |  BARRA--14  |  1  |   0.980   |  -10.75  |  0.000   | -27.978  | 329.272  |  66.194  |  0.000   |
---------------------------------------------------------------------------------------------------------
| 15  |  BARRA--15  |  1  |   1.014   |  -1.45   | 215.000  | -10.577  | 538.038  | 108.626  |  0.000   |
---------------------------------------------------------------------------------------------------------
| 16  |  BARRA--16  |  1  |   1.017   |  -2.56   | 155.000  |  44.359  | 169.728  |  33.946  |  0.000   |
---------------------------------------------------------------------------------------------------------
| 17  |  BARRA--17  |  0  |   1.039   |  +1.92   |  -0.000  |  -0.000  |  0.000   |  0.000   |  0.000   |
---------------------------------------------------------------------------------------------------------
| 18  |  BARRA--18  |  1  |   1.050   |  +3.28   | 400.000  | 138.722  | 565.194  | 115.415  |  0.000   |
---------------------------------------------------------------------------------------------------------
| 19  |  BARRA--19  |  0  |   1.023   |  -4.09   |  0.000   |  0.000   | 307.208  |  62.799  |  0.000   |
---------------------------------------------------------------------------------------------------------
| 20  |  BARRA--20  |  0  |   1.038   |  -3.48   |  -0.000  |  0.000   | 217.252  |  44.129  |  0.000   |
---------------------------------------------------------------------------------------------------------

|          BARRA          |         TENSAO       |        GERACAO      |         CARGA       |   SHUNT  |
| NUM |     NOME    |  T  |    MOD    |    ANG   |    MW    |   Mvar   |    MW    |   Mvar   |    Mvar  |
---------------------------------------------------------------------------------------------------------
| 21  |  BARRA--21  |  1  |   1.050   |  +4.11   | 400.000  | 106.912  |  0.000   |  0.000   |  0.000   |
---------------------------------------------------------------------------------------------------------
| 22  |  BARRA--22  |  1  |   1.050   |  +9.76   | 300.000  | -29.546  |  0.000   |  0.000   |  0.000   |
---------------------------------------------------------------------------------------------------------
| 23  |  BARRA--23  |  1  |   1.050   |  -2.43   | 660.000  | 135.436  |  0.000   |  0.000   |  0.000   |
---------------------------------------------------------------------------------------------------------
| 24  |  BARRA--24  |  0  |   0.981   |  -7.73   |  -0.000  |  0.000   |  0.000   |  0.000   |  0.000   |
---------------------------------------------------------------------------------------------------------



vv relatório de execução do fluxo de potência continuado vv

              | INCREMENTO DE CARGA |     CARGA TOTAL     |         PASSO        |
| CASO | ITER |  ATIVA   |  REATIVA |  ATIVA   |  REATIVA | VARIÁVEL | VALOR [%] |
----------------------------------------------------------------------------------
|  0   |  4   |   0.0    |   0.0    | 2850.000 | 580.000  |  lambda  |    1.0    |
----------------------------------------------------------------------------------
|  1   |  4   |  1.000   |  1.000   | 2878.500 | 585.800  |  lambda  |   +1.00   |
----------------------------------------------------------------------------------
|  2   |  4   |  2.000   |  2.000   | 2907.000 | 591.600  |  lambda  |   +1.00   |
----------------------------------------------------------------------------------
|  3   |  4   |  3.000   |  3.000   | 2935.500 | 597.400  |  lambda  |   +1.00   |
----------------------------------------------------------------------------------
|  4   |  4   |  4.000   |  4.000   | 2964.000 | 603.200  |  lambda  |   +1.00   |
----------------------------------------------------------------------------------

              | INCREMENTO DE CARGA |     CARGA TOTAL     |         PASSO        |
| CASO | ITER |  ATIVA   |  REATIVA |  ATIVA   |  REATIVA | VARIÁVEL | VALOR [%] |
----------------------------------------------------------------------------------
|  5   |  4   |  5.000   |  5.000   | 2992.500 | 609.000  |  lambda  |   +1.00   |
----------------------------------------------------------------------------------
|  6   |  4   |  6.000   |  6.000   | 3021.000 | 614.800  |  lambda  |   +1.00   |
----------------------------------------------------------------------------------
|  7   |  4   |  7.000   |  7.000   | 3049.500 | 620.600  |  lambda  |   +1.00   |
----------------------------------------------------------------------------------
|  8   |  4   |  8.000   |  8.000   | 3078.000 | 626.400  |  lambda  |   +1.00   |
----------------------------------------------------------------------------------
|  9   |  4   |  9.000   |  9.000   | 3106.500 | 632.200  |  lambda  |   +1.00   |
----------------------------------------------------------------------------------

              | INCREMENTO DE CARGA |     CARGA TOTAL     |         PASSO        |
| CASO | ITER |  ATIVA   |  REATIVA |  ATIVA   |  REATIVA | VARIÁVEL | VALOR [%] |
----------------------------------------------------------------------------------
|  10  |  4   |  10.000  |  10.000  | 3135.000 | 638.000  |  lambda  |   +1.00   |
----------------------------------------------------------------------------------
|  11  |  4   |  11.000  |  11.000  | 3163.500 | 643.800  |  lambda  |   +1.00   |
----------------------------------------------------------------------------------
|  12  |  4   |  12.000  |  12.000  | 3192.000 | 649.600  |  lambda  |   +1.00   |
----------------------------------------------------------------------------------
|  13  |  4   |  13.000  |  13.000  | 3220.500 | 655.400  |  lambda  |   +1.00   |
----------------------------------------------------------------------------------
|  14  |  4   |  14.000  |  14.000  | 3249.000 | 661.200  |  lambda  |   +1.00   |
----------------------------------------------------------------------------------

              | INCREMENTO DE CARGA |     CARGA TOTAL     |         PASSO        |
| CASO | ITER |  ATIVA   |  REATIVA |  ATIVA   |  REATIVA | VARIÁVEL | VALOR [%] |
----------------------------------------------------------------------------------
|  15  |  4   |  15.000  |  15.000  | 3277.500 | 667.000  |  lambda  |   +1.00   |
----------------------------------------------------------------------------------
|  16  |  4   |  16.000  |  16.000  | 3306.000 | 672.800  |  lambda  |   +1.00   |
----------------------------------------------------------------------------------
|  17  |  4   |  17.000  |  17.000  | 3334.500 | 678.600  |  lambda  |   +1.00   |
----------------------------------------------------------------------------------
|  18  |  4   |  18.000  |  18.000  | 3363.000 | 684.400  |  lambda  |   +1.00   |
----------------------------------------------------------------------------------
|  19  |  4   |  19.000  |  19.000  | 3391.500 | 690.200  |  lambda  |   +1.00   |
----------------------------------------------------------------------------------

              | INCREMENTO DE CARGA |     CARGA TOTAL     |         PASSO        |
| CASO | ITER |  ATIVA   |  REATIVA |  ATIVA   |  REATIVA | VARIÁVEL | VALOR [%] |
----------------------------------------------------------------------------------
|  20  |  4   |  20.000  |  20.000  | 3420.000 | 696.000  |  lambda  |   +1.00   |
----------------------------------------------------------------------------------
|  21  |  4   |  21.000  |  21.000  | 3448.500 | 701.800  |  lambda  |   +1.00   |
----------------------------------------------------------------------------------
|  22  |  4   |  22.000  |  22.000  | 3477.000 | 707.600  |  lambda  |   +1.00   |
----------------------------------------------------------------------------------
|  23  |  4   |  23.000  |  23.000  | 3505.500 | 713.400  |  lambda  |   +1.00   |
----------------------------------------------------------------------------------
|  24  |  4   |  24.000  |  24.000  | 3534.000 | 719.200  |  lambda  |   +1.00   |
----------------------------------------------------------------------------------

              | INCREMENTO DE CARGA |     CARGA TOTAL     |         PASSO        |
| CASO | ITER |  ATIVA   |  REATIVA |  ATIVA   |  REATIVA | VARIÁVEL | VALOR [%] |
----------------------------------------------------------------------------------
|  25  |  4   |  25.000  |  25.000  | 3562.500 | 725.000  |  lambda  |   +1.00   |
----------------------------------------------------------------------------------
|  26  |  4   |  26.000  |  26.000  | 3591.000 | 730.800  |  lambda  |   +1.00   |
----------------------------------------------------------------------------------
|  27  |  4   |  27.000  |  27.000  | 3619.500 | 736.600  |  lambda  |   +1.00   |
----------------------------------------------------------------------------------
|  28  |  4   |  28.000  |  28.000  | 3648.000 | 742.400  |  lambda  |   +1.00   |
----------------------------------------------------------------------------------
|  29  |  4   |  29.000  |  29.000  | 3676.500 | 748.200  |  lambda  |   +1.00   |
----------------------------------------------------------------------------------

              | INCREMENTO DE CARGA |     CARGA TOTAL     |         PASSO        |
| CASO | ITER |  ATIVA   |  REATIVA |  ATIVA   |  REATIVA | VARIÁVEL | VALOR [%] |
----------------------------------------------------------------------------------
|  30  |  4   |  30.000  |  30.000  | 3705.000 | 754.000  |  lambda  |   +1.00   |
----------------------------------------------------------------------------------
|  31  |  4   |  31.000  |  31.000  | 3733.500 | 759.800  |  lambda  |   +1.00   |
----------------------------------------------------------------------------------
|  32  |  4   |  32.000  |  32.000  | 3762.000 | 765.600  |  lambda  |   +1.00   |
----------------------------------------------------------------------------------
|  33  |  4   |  33.000  |  33.000  | 3790.500 | 771.400  |  lambda  |   +1.00   |
----------------------------------------------------------------------------------
|  34  |  4   |  34.000  |  34.000  | 3819.000 | 777.200  |  lambda  |   +1.00   |
----------------------------------------------------------------------------------

              | INCREMENTO DE CARGA |     CARGA TOTAL     |         PASSO        |
| CASO | ITER |  ATIVA   |  REATIVA |  ATIVA   |  REATIVA | VARIÁVEL | VALOR [%] |
----------------------------------------------------------------------------------
|  35  |  4   |  35.000  |  35.000  | 3847.500 | 783.000  |  lambda  |   +1.00   |
----------------------------------------------------------------------------------
|  36  |  4   |  36.000  |  36.000  | 3876.000 | 788.800  |  lambda  |   +1.00   |
----------------------------------------------------------------------------------
|  37  |  4   |  37.000  |  37.000  | 3904.500 | 794.600  |  lambda  |   +1.00   |
----------------------------------------------------------------------------------
|  38  |  4   |  38.000  |  38.000  | 3933.000 | 800.400  |  lambda  |   +1.00   |
----------------------------------------------------------------------------------
|  39  |  4   |  39.000  |  39.000  | 3961.500 | 806.200  |  lambda  |   +1.00   |
----------------------------------------------------------------------------------

              | INCREMENTO DE CARGA |     CARGA TOTAL     |         PASSO        |
| CASO | ITER |  ATIVA   |  REATIVA |  ATIVA   |  REATIVA | VARIÁVEL | VALOR [%] |
----------------------------------------------------------------------------------
|  40  |  4   |  40.000  |  40.000  | 3990.000 | 812.000  |  lambda  |   +1.00   |
----------------------------------------------------------------------------------
|  41  |  4   |  41.000  |  41.000  | 4018.500 | 817.800  |  lambda  |   +1.00   |
----------------------------------------------------------------------------------
|  42  |  4   |  42.000  |  42.000  | 4047.000 | 823.600  |  lambda  |   +1.00   |
----------------------------------------------------------------------------------
|  43  |  4   |  43.000  |  43.000  | 4075.500 | 829.400  |  lambda  |   +1.00   |
----------------------------------------------------------------------------------
|  44  |  4   |  44.000  |  44.000  | 4104.000 | 835.200  |  lambda  |   +1.00   |
----------------------------------------------------------------------------------

              | INCREMENTO DE CARGA |     CARGA TOTAL     |         PASSO        |
| CASO | ITER |  ATIVA   |  REATIVA |  ATIVA   |  REATIVA | VARIÁVEL | VALOR [%] |
----------------------------------------------------------------------------------
|  45  |  4   |  45.000  |  45.000  | 4132.500 | 841.000  |  lambda  |   +1.00   |
----------------------------------------------------------------------------------
|  46  |  4   |  46.000  |  46.000  | 4161.000 | 846.800  |  lambda  |   +1.00   |
----------------------------------------------------------------------------------
|  47  |  4   |  47.000  |  47.000  | 4189.500 | 852.600  |  lambda  |   +1.00   |
----------------------------------------------------------------------------------
|  48  |  4   |  48.000  |  48.000  | 4218.000 | 858.400  |  lambda  |   +1.00   |
----------------------------------------------------------------------------------
|  49  |  4   |  49.000  |  49.000  | 4246.500 | 864.200  |  lambda  |   +1.00   |
----------------------------------------------------------------------------------

              | INCREMENTO DE CARGA |     CARGA TOTAL     |         PASSO        |
| CASO | ITER |  ATIVA   |  REATIVA |  ATIVA   |  REATIVA | VARIÁVEL | VALOR [%] |
----------------------------------------------------------------------------------
|  50  |  4   |  50.000  |  50.000  | 4275.000 | 870.000  |  lambda  |   +1.00   |
----------------------------------------------------------------------------------
|  51  |  4   |  51.000  |  51.000  | 4303.500 | 875.800  |  lambda  |   +1.00   |
----------------------------------------------------------------------------------
|  52  |  4   |  52.000  |  52.000  | 4332.000 | 881.600  |  lambda  |   +1.00   |
----------------------------------------------------------------------------------
|  53  |  4   |  53.000  |  53.000  | 4360.500 | 887.400  |  lambda  |   +1.00   |
----------------------------------------------------------------------------------
|  54  |  4   |  54.000  |  54.000  | 4389.000 | 893.200  |  lambda  |   +1.00   |
----------------------------------------------------------------------------------

              | INCREMENTO DE CARGA |     CARGA TOTAL     |         PASSO        |
| CASO | ITER |  ATIVA   |  REATIVA |  ATIVA   |  REATIVA | VARIÁVEL | VALOR [%] |
----------------------------------------------------------------------------------
|  55  |  4   |  55.000  |  55.000  | 4417.500 | 899.000  |  lambda  |   +1.00   |
----------------------------------------------------------------------------------
|  56  |  4   |  56.000  |  56.000  | 4446.000 | 904.800  |  lambda  |   +1.00   |
----------------------------------------------------------------------------------
|  57  |  4   |  57.000  |  57.000  | 4474.500 | 910.600  |  lambda  |   +1.00   |
----------------------------------------------------------------------------------
|  58  |  4   |  58.000  |  58.000  | 4503.000 | 916.400  |  lambda  |   +1.00   |
----------------------------------------------------------------------------------
|  59  |  4   |  59.000  |  59.000  | 4531.500 | 922.200  |  lambda  |   +1.00   |
----------------------------------------------------------------------------------

              | INCREMENTO DE CARGA |     CARGA TOTAL     |         PASSO        |
| CASO | ITER |  ATIVA   |  REATIVA |  ATIVA   |  REATIVA | VARIÁVEL | VALOR [%] |
----------------------------------------------------------------------------------
|  60  |  4   |  60.000  |  60.000  | 4560.000 | 928.000  |  lambda  |   +1.00   |
----------------------------------------------------------------------------------
|  61  |  4   |  61.000  |  61.000  | 4588.500 | 933.800  |  lambda  |   +1.00   |
----------------------------------------------------------------------------------
|  62  |  4   |  62.000  |  62.000  | 4617.000 | 939.600  |  lambda  |   +1.00   |
----------------------------------------------------------------------------------
|  63  |  4   |  63.000  |  63.000  | 4645.500 | 945.400  |  lambda  |   +1.00   |
----------------------------------------------------------------------------------
|  64  |  4   |  64.000  |  64.000  | 4674.000 | 951.200  |  lambda  |   +1.00   |
----------------------------------------------------------------------------------

              | INCREMENTO DE CARGA |     CARGA TOTAL     |         PASSO        |
| CASO | ITER |  ATIVA   |  REATIVA |  ATIVA   |  REATIVA | VARIÁVEL | VALOR [%] |
----------------------------------------------------------------------------------
|  65  |  4   |  65.000  |  65.000  | 4702.500 | 957.000  |  lambda  |   +1.00   |
----------------------------------------------------------------------------------
|  66  |  4   |  66.000  |  66.000  | 4731.000 | 962.800  |  lambda  |   +1.00   |
----------------------------------------------------------------------------------
|  67  |  4   |  67.000  |  67.000  | 4759.500 | 968.600  |  lambda  |   +1.00   |
----------------------------------------------------------------------------------
|  68  |  4   |  68.000  |  68.000  | 4788.000 | 974.400  |  lambda  |   +1.00   |
----------------------------------------------------------------------------------
|  69  |  4   |  69.000  |  69.000  | 4816.500 | 980.200  |  lambda  |   +1.00   |
----------------------------------------------------------------------------------

              | INCREMENTO DE CARGA |     CARGA TOTAL     |         PASSO        |
| CASO | ITER |  ATIVA   |  REATIVA |  ATIVA   |  REATIVA | VARIÁVEL | VALOR [%] |
----------------------------------------------------------------------------------
|  70  |  4   |  69.250  |  69.250  | 4823.625 | 981.650  |  lambda  |   +1.00   |
----------------------------------------------------------------------------------
|  71  |  4   |  69.500  |  69.500  | 4830.750 | 983.100  |  lambda  |   +1.00   |
----------------------------------------------------------------------------------
|  72  |  4   |  69.563  |  69.563  | 4832.531 | 983.463  |  lambda  |   +1.00   |
----------------------------------------------------------------------------------
|  73  |  4   |  69.625  |  69.625  | 4834.313 | 983.825  |  lambda  |   +1.00   |
----------------------------------------------------------------------------------
|  74  |  4   |  69.688  |  69.688  | 4836.094 | 984.188  |  lambda  |   +1.00   |
----------------------------------------------------------------------------------

              | INCREMENTO DE CARGA |     CARGA TOTAL     |         PASSO        |
| CASO | ITER |  ATIVA   |  REATIVA |  ATIVA   |  REATIVA | VARIÁVEL | VALOR [%] |
----------------------------------------------------------------------------------
|  75  |  4   |  69.703  |  69.703  | 4836.539 | 984.278  |  lambda  |   +1.00   |
----------------------------------------------------------------------------------
|  76  |  4   |  69.719  |  69.719  | 4836.984 | 984.369  |  lambda  |   +1.00   |
----------------------------------------------------------------------------------
|  77  |  4   |  69.723  |  69.723  | 4837.096 | 984.391  |  lambda  |   +1.00   |
----------------------------------------------------------------------------------
|  78  |  4   |  69.727  |  69.727  | 4837.207 | 984.414  |  lambda  |   +1.00   |
----------------------------------------------------------------------------------
|  79  |  4   |  69.728  |  69.728  | 4837.235 | 984.420  |  lambda  |   +1.00   |
----------------------------------------------------------------------------------

              | INCREMENTO DE CARGA |     CARGA TOTAL     |         PASSO        |
| CASO | ITER |  ATIVA   |  REATIVA |  ATIVA   |  REATIVA | VARIÁVEL | VALOR [%] |
----------------------------------------------------------------------------------
|  80  |  3   |  69.728  |  69.728  | 4837.242 | 984.421  |  lambda  |   +1.00   |
----------------------------------------------------------------------------------
|  81  |  4   |  69.728  |  69.728  | 4837.244 | 984.421  |  lambda  |   +1.00   |
----------------------------------------------------------------------------------
|  82  |  3   |  69.728  |  69.728  | 4837.245 | 984.422  |  lambda  |   +1.00   |
----------------------------------------------------------------------------------
|  83  |  3   |  69.728  |  69.728  | 4837.246 | 984.422  |  lambda  |   +1.00   |
----------------------------------------------------------------------------------
|  84  |  3   |  69.728  |  69.728  | 4837.246 | 984.422  |  lambda  |   +1.00   |
----------------------------------------------------------------------------------

              | INCREMENTO DE CARGA |     CARGA TOTAL     |         PASSO        |
| CASO | ITER |  ATIVA   |  REATIVA |  ATIVA   |  REATIVA | VARIÁVEL | VALOR [%] |
----------------------------------------------------------------------------------
|  85  |  3   |  69.728  |  69.728  | 4837.246 | 984.422  |  lambda  |   +1.00   |
----------------------------------------------------------------------------------
|  86  |  3   |  69.728  |  69.728  | 4837.246 | 984.422  |  lambda  |   +1.00   |
----------------------------------------------------------------------------------
|  87  |  4   |  69.728  |  69.728  | 4837.246 | 984.422  |  lambda  |   +1.00   |
----------------------------------------------------------------------------------

----------------------------------------------------------------------------------



fim do relatório do sistema ieee24